P1
Actelion Java MolfileCreator 2.0

  0  0  0  0  0  0              0 V3000
M  V30 BEGIN CTAB
M  V30 COUNTS 48 52 0 0 0
M  V30 BEGIN ATOM
M  V30 1 Cl 0.571 -16.2473 -21.2098 0
M  V30 2 C 0.926 -14.9695 -20.1026 0
M  V30 3 C -0.0744 -14.0585 -19.6999 0
M  V30 4 C 2.2335 -14.839 -19.5984 0
M  V30 5 Cl -1.6906 -14.191 -20.2924 0
M  V30 6 C 0.247 -13.0131 -18.8099 0
M  V30 7 C 2.5617 -13.7906 -18.7156 0
M  V30 8 C 1.562 -12.8699 -18.3293 0
M  V30 9 N 3.8568 -13.7302 -18.1945 0
M  V30 10 C 4.4388 -12.628 -17.5695 0
M  V30 11 N 4.5801 -11.4819 -18.2822 0
M  V30 12 C 4.8955 -12.7122 -16.2317 0
M  V30 13 C 5.1984 -10.4016 -17.7512 0
M  V30 14 N 4.8388 -13.7585 -15.3264 0
M  V30 15 C 5.5093 -11.5677 -15.6604 0
M  V30 16 C 5.6722 -10.3984 -16.4149 0
M  V30 17 C 5.4152 -9.2451 -18.5266 0
M  V30 18 C 5.4318 -13.2455 -14.2473 0
M  V30 19 N 5.8293 -11.9641 -14.3704 0
M  V30 20 C 6.3078 -9.2672 -15.8732 0
M  V30 21 C 6.0819 -8.1231 -18.0034 0
M  V30 22 C 5.5896 -13.9892 -12.9556 0
M  V30 23 C 6.5243 -8.1317 -16.6727 0
M  V30 24 C 6.2224 -15.3791 -13.1792 0
M  V30 25 C 4.2513 -14.1026 -12.2007 0
M  V30 26 C 6.3661 -16.1636 -11.8677 0
M  V30 27 C 4.413 -14.8783 -10.8837 0
M  V30 28 C 5.0229 -16.2678 -11.1249 0
M  V30 29 H 2.9913 -15.5497 -19.896 0
M  V30 30 H -0.517 -12.3119 -18.5053 0
M  V30 31 H 1.7868 -12.0691 -17.6399 0
M  V30 32 H 4.1554 -14.6077 -17.7838 0
M  V30 33 H 5.0896 -9.2299 -19.5512 0
M  V30 34 H 6.277 -11.4266 -13.642 0
M  V30 35 H 6.6587 -9.2747 -14.8536 0
M  V30 36 H 6.2728 -7.2604 -18.6245 0
M  V30 37 H 6.2748 -13.4172 -12.3269 0
M  V30 38 H 7.0384 -7.2701 -16.2726 0
M  V30 39 H 7.1992 -15.2737 -13.6549 0
M  V30 40 H 5.6064 -15.9563 -13.8704 0
M  V30 41 H 3.5147 -14.6041 -12.8297 0
M  V30 42 H 3.8531 -13.1085 -11.9928 0
M  V30 43 H 6.7566 -17.1621 -12.0701 0
M  V30 44 H 7.1008 -15.671 -11.2306 0
M  V30 45 H 3.4482 -14.9743 -10.3841 0
M  V30 46 H 5.0537 -14.3093 -10.2084 0
M  V30 47 H 4.3305 -16.8778 -11.7047 0
M  V30 48 H 5.1651 -16.7805 -10.1729 0
M  V30 END ATOM
M  V30 BEGIN BOND
M  V30 1 1 1 2
M  V30 2 2 2 3
M  V30 3 1 2 4
M  V30 4 1 3 5
M  V30 5 1 3 6
M  V30 6 2 4 7
M  V30 7 2 6 8
M  V30 8 1 7 9
M  V30 9 1 9 10
M  V30 10 2 10 11
M  V30 11 1 10 12
M  V30 12 1 11 13
M  V30 13 1 12 14
M  V30 14 2 12 15
M  V30 15 1 13 16
M  V30 16 2 13 17
M  V30 17 2 14 18
M  V30 18 1 15 19
M  V30 19 2 16 20
M  V30 20 1 17 21
M  V30 21 1 18 22
M  V30 22 1 20 23
M  V30 23 1 22 24
M  V30 24 1 22 25
M  V30 25 1 24 26
M  V30 26 1 25 27
M  V30 27 1 26 28
M  V30 28 1 7 8
M  V30 29 1 15 16
M  V30 30 1 18 19
M  V30 31 2 21 23
M  V30 32 1 27 28
M  V30 33 1 4 29
M  V30 34 1 6 30
M  V30 35 1 8 31
M  V30 36 1 9 32
M  V30 37 1 17 33
M  V30 38 1 19 34
M  V30 39 1 20 35
M  V30 40 1 21 36
M  V30 41 1 22 37
M  V30 42 1 23 38
M  V30 43 1 24 39
M  V30 44 1 24 40
M  V30 45 1 25 41
M  V30 46 1 25 42
M  V30 47 1 26 43
M  V30 48 1 26 44
M  V30 49 1 27 45
M  V30 50 1 27 46
M  V30 51 1 28 47
M  V30 52 1 28 48
M  V30 END BOND
M  V30 END CTAB
M  END
>  <Molecule Name>
P1

>  <r_i_docking_score>
-5.32727140892056

$$$$
P2
Actelion Java MolfileCreator 2.0

  0  0  0  0  0  0              0 V3000
M  V30 BEGIN CTAB
M  V30 COUNTS 48 52 0 0 0
M  V30 BEGIN ATOM
M  V30 1 Cl -1.1426 -12.6227 -18.6479 0
M  V30 2 C 0.2457 -13.6282 -18.8733 0
M  V30 3 C 0.284 -14.5988 -19.8991 0
M  V30 4 C 1.3465 -13.4846 -18.0041 0
M  V30 5 Cl -1.0384 -14.7884 -20.9959 0
M  V30 6 C 1.4122 -15.4307 -20.0358 0
M  V30 7 C 2.4733 -14.3232 -18.1365 0
M  V30 8 C 2.4967 -15.3056 -19.1466 0
M  V30 9 N 3.5505 -14.2242 -17.2503 0
M  V30 10 C 4.2077 -13.0585 -16.846 0
M  V30 11 N 4.1333 -11.9613 -17.642 0
M  V30 12 C 4.9619 -13.0321 -15.6456 0
M  V30 13 C 4.7732 -10.8137 -17.3177 0
M  V30 14 N 5.1781 -14.0114 -14.6859 0
M  V30 15 C 5.6198 -11.8239 -15.3013 0
M  V30 16 C 5.5312 -10.6976 -16.13 0
M  V30 17 C 4.689 -9.6836 -18.1533 0
M  V30 18 C 5.989 -13.4022 -13.8153 0
M  V30 19 N 6.2488 -12.1111 -14.1025 0
M  V30 20 C 6.1717 -9.4929 -15.7888 0
M  V30 21 C 5.3506 -8.4826 -17.8387 0
M  V30 22 C 6.5021 -14.0389 -12.5486 0
M  V30 23 C 6.1003 -8.3879 -16.6544 0
M  V30 24 C 7.8026 -13.3852 -12.031 0
M  V30 25 C 6.7501 -15.5594 -12.6938 0
M  V30 26 C 9.0056 -13.6662 -12.9483 0
M  V30 27 C 7.9482 -15.8782 -13.6067 0
M  V30 28 C 9.2236 -15.1762 -13.1219 0
M  V30 29 H 1.3138 -12.7433 -17.2187 0
M  V30 30 H 1.4456 -16.1758 -20.8162 0
M  V30 31 H 3.3536 -15.953 -19.2527 0
M  V30 32 H 3.8578 -15.0686 -16.7879 0
M  V30 33 H 4.0923 -9.7443 -19.0417 0
M  V30 34 H 6.8195 -11.5014 -13.5373 0
M  V30 35 H 6.6935 -9.4098 -14.8516 0
M  V30 36 H 5.2664 -7.6313 -18.4967 0
M  V30 37 H 5.7264 -13.8933 -11.7946 0
M  V30 38 H 6.5967 -7.4634 -16.3954 0
M  V30 39 H 8.0304 -13.7898 -11.0433 0
M  V30 40 H 7.6768 -12.3126 -11.8847 0
M  V30 41 H 5.8532 -16.0606 -13.0604 0
M  V30 42 H 6.9464 -15.9818 -11.7077 0
M  V30 43 H 8.8531 -13.1999 -13.9227 0
M  V30 44 H 9.8972 -13.2143 -12.5236 0
M  V30 45 H 7.7217 -15.5732 -14.6306 0
M  V30 46 H 8.1113 -16.9551 -13.6362 0
M  V30 47 H 10.0415 -15.3587 -13.8217 0
M  V30 48 H 9.5371 -15.6079 -12.1679 0
M  V30 END ATOM
M  V30 BEGIN BOND
M  V30 1 1 1 2
M  V30 2 2 2 3
M  V30 3 1 2 4
M  V30 4 1 3 5
M  V30 5 1 3 6
M  V30 6 2 4 7
M  V30 7 2 6 8
M  V30 8 1 7 9
M  V30 9 1 9 10
M  V30 10 2 10 11
M  V30 11 1 10 12
M  V30 12 1 11 13
M  V30 13 1 12 14
M  V30 14 2 12 15
M  V30 15 1 13 16
M  V30 16 2 13 17
M  V30 17 2 14 18
M  V30 18 1 15 19
M  V30 19 2 16 20
M  V30 20 1 17 21
M  V30 21 1 18 22
M  V30 22 1 20 23
M  V30 23 1 22 24
M  V30 24 1 22 25
M  V30 25 1 24 26
M  V30 26 1 25 27
M  V30 27 1 26 28
M  V30 28 1 7 8
M  V30 29 1 15 16
M  V30 30 1 18 19
M  V30 31 2 21 23
M  V30 32 1 27 28
M  V30 33 1 4 29
M  V30 34 1 6 30
M  V30 35 1 8 31
M  V30 36 1 9 32
M  V30 37 1 17 33
M  V30 38 1 19 34
M  V30 39 1 20 35
M  V30 40 1 21 36
M  V30 41 1 22 37
M  V30 42 1 23 38
M  V30 43 1 24 39
M  V30 44 1 24 40
M  V30 45 1 25 41
M  V30 46 1 25 42
M  V30 47 1 26 43
M  V30 48 1 26 44
M  V30 49 1 27 45
M  V30 50 1 27 46
M  V30 51 1 28 47
M  V30 52 1 28 48
M  V30 END BOND
M  V30 END CTAB
M  END
>  <Molecule Name>
P2

>  <r_i_docking_score>
-4.93905507862252

$$$$
P3
Actelion Java MolfileCreator 2.0

  0  0  0  0  0  0              0 V3000
M  V30 BEGIN CTAB
M  V30 COUNTS 48 52 0 0 0
M  V30 BEGIN ATOM
M  V30 1 Cl 0.8158 -17.1557 -19.9675 0
M  V30 2 C 1.0807 -15.5948 -19.2754 0
M  V30 3 C 0.2157 -14.5173 -19.5669 0
M  V30 4 C 2.1769 -15.4031 -18.4098 0
M  V30 5 Cl -1.1257 -14.7131 -20.6394 0
M  V30 6 C 0.4461 -13.2598 -18.9794 0
M  V30 7 C 2.4326 -14.136 -17.8437 0
M  V30 8 C 1.5451 -13.0707 -18.1227 0
M  V30 9 N 3.5367 -13.9868 -16.9902 0
M  V30 10 C 4.2752 -12.8301 -16.7102 0
M  V30 11 N 4.1934 -11.7807 -17.564 0
M  V30 12 C 5.0972 -12.7503 -15.5583 0
M  V30 13 C 4.8338 -10.6169 -17.3229 0
M  V30 14 N 5.3646 -13.6819 -14.5656 0
M  V30 15 C 5.775 -11.5285 -15.3033 0
M  V30 16 C 5.6453 -10.4424 -16.1806 0
M  V30 17 C 4.6808 -9.528 -18.197 0
M  V30 18 C 6.1988 -13.0265 -13.7535 0
M  V30 19 N 6.4563 -11.7573 -14.1212 0
M  V30 20 C 6.2924 -9.2183 -15.9339 0
M  V30 21 C 5.3325 -8.3046 -17.9659 0
M  V30 22 C 6.8162 -13.5917 -12.5013 0
M  V30 23 C 6.1527 -8.153 -16.8377 0
M  V30 24 C 8.3428 -13.3515 -12.4378 0
M  V30 25 C 6.5257 -15.0983 -12.2903 0
M  V30 26 C 9.1144 -14.2181 -13.4417 0
M  V30 27 C 7.3129 -15.9998 -13.2621 0
M  V30 28 C 8.8214 -15.7087 -13.2081 0
M  V30 29 H 2.8314 -16.2355 -18.1949 0
M  V30 30 H -0.218 -12.4343 -19.1895 0
M  V30 31 H 1.6892 -12.0977 -17.678 0
M  V30 32 H 3.83 -14.8003 -16.4663 0
M  V30 33 H 4.0361 -9.6427 -19.0474 0
M  V30 34 H 7.0559 -11.1262 -13.614 0
M  V30 35 H 6.8912 -9.0848 -15.0528 0
M  V30 36 H 5.1943 -7.4841 -18.6472 0
M  V30 37 H 6.3559 -13.0524 -11.6727 0
M  V30 38 H 6.6576 -7.2191 -16.6501 0
M  V30 39 H 8.697 -13.6091 -11.444 0
M  V30 40 H 8.5836 -12.2951 -12.5709 0
M  V30 41 H 5.4551 -15.2978 -12.3688 0
M  V30 42 H 6.7988 -15.372 -11.2713 0
M  V30 43 H 8.8489 -13.9364 -14.4617 0
M  V30 44 H 10.1831 -14.0341 -13.3369 0
M  V30 45 H 6.9539 -15.8532 -14.281 0
M  V30 46 H 7.1299 -17.0483 -13.0213 0
M  V30 47 H 9.3431 -16.309 -13.9537 0
M  V30 48 H 9.2166 -16.0089 -12.2363 0
M  V30 END ATOM
M  V30 BEGIN BOND
M  V30 1 1 1 2
M  V30 2 2 2 3
M  V30 3 1 2 4
M  V30 4 1 3 5
M  V30 5 1 3 6
M  V30 6 2 4 7
M  V30 7 2 6 8
M  V30 8 1 7 9
M  V30 9 1 9 10
M  V30 10 2 10 11
M  V30 11 1 10 12
M  V30 12 1 11 13
M  V30 13 1 12 14
M  V30 14 2 12 15
M  V30 15 1 13 16
M  V30 16 2 13 17
M  V30 17 2 14 18
M  V30 18 1 15 19
M  V30 19 2 16 20
M  V30 20 1 17 21
M  V30 21 1 18 22
M  V30 22 1 20 23
M  V30 23 1 22 24
M  V30 24 1 22 25
M  V30 25 1 24 26
M  V30 26 1 25 27
M  V30 27 1 26 28
M  V30 28 1 7 8
M  V30 29 1 15 16
M  V30 30 1 18 19
M  V30 31 2 21 23
M  V30 32 1 27 28
M  V30 33 1 4 29
M  V30 34 1 6 30
M  V30 35 1 8 31
M  V30 36 1 9 32
M  V30 37 1 17 33
M  V30 38 1 19 34
M  V30 39 1 20 35
M  V30 40 1 21 36
M  V30 41 1 22 37
M  V30 42 1 23 38
M  V30 43 1 24 39
M  V30 44 1 24 40
M  V30 45 1 25 41
M  V30 46 1 25 42
M  V30 47 1 26 43
M  V30 48 1 26 44
M  V30 49 1 27 45
M  V30 50 1 27 46
M  V30 51 1 28 47
M  V30 52 1 28 48
M  V30 END BOND
M  V30 END CTAB
M  END
>  <Molecule Name>
P3

>  <r_i_docking_score>
-4.8901139678222

$$$$
P4
Actelion Java MolfileCreator 2.0

  0  0  0  0  0  0              0 V3000
M  V30 BEGIN CTAB
M  V30 COUNTS 48 52 0 0 0
M  V30 BEGIN ATOM
M  V30 1 Cl 4.0038 -15.0973 -11.8831 0
M  V30 2 C 5.6428 -14.8531 -12.3761 0
M  V30 3 C 6.6596 -15.7649 -12.01 0
M  V30 4 C 5.9599 -13.7303 -13.1634 0
M  V30 5 Cl 6.2963 -17.1909 -11.1043 0
M  V30 6 C 7.9933 -15.518 -12.397 0
M  V30 7 C 7.2865 -13.511 -13.5996 0
M  V30 8 C 8.3091 -14.3905 -13.18 0
M  V30 9 N 7.6129 -12.4272 -14.4232 0
M  V30 10 C 6.8089 -11.8148 -15.3937 0
M  V30 11 N 7.1208 -10.5248 -15.6486 0
M  V30 12 C 5.7577 -12.4547 -16.1117 0
M  V30 13 C 6.409 -9.7751 -16.5183 0
M  V30 14 N 5.2735 -13.7567 -16.0799 0
M  V30 15 C 5.0202 -11.6691 -17.0428 0
M  V30 16 C 5.3292 -10.3193 -17.2492 0
M  V30 17 C 6.7207 -8.4143 -16.7048 0
M  V30 18 C 4.2645 -13.7227 -16.9498 0
M  V30 19 N 4.0696 -12.535 -17.5493 0
M  V30 20 C 4.5839 -9.529 -18.1454 0
M  V30 21 C 5.9714 -7.6088 -17.5835 0
M  V30 22 C 3.3714 -14.8874 -17.2439 0
M  V30 23 C 4.9013 -8.1684 -18.3032 0
M  V30 24 C 2.5917 -15.3279 -15.9901 0
M  V30 25 C 4.1481 -16.0642 -17.862 0
M  V30 26 C 1.656 -16.5049 -16.309 0
M  V30 27 C 3.207 -17.2362 -18.1808 0
M  V30 28 C 2.4307 -17.6804 -16.9299 0
M  V30 29 H 5.1668 -13.0506 -13.4559 0
M  V30 30 H 8.7718 -16.207 -12.1009 0
M  V30 31 H 9.3357 -14.2248 -13.4828 0
M  V30 32 H 8.4845 -11.9618 -14.2264 0
M  V30 33 H 7.5362 -7.9875 -16.1468 0
M  V30 34 H 3.3493 -12.3417 -18.2292 0
M  V30 35 H 3.7656 -9.9605 -18.7028 0
M  V30 36 H 6.2146 -6.5644 -17.6961 0
M  V30 37 H 2.6392 -14.5526 -17.9819 0
M  V30 38 H 4.3214 -7.5514 -18.973 0
M  V30 39 H 2.0107 -14.4924 -15.5935 0
M  V30 40 H 3.2873 -15.6166 -15.1986 0
M  V30 41 H 4.9288 -16.3949 -17.1745 0
M  V30 42 H 4.6568 -15.7388 -18.7704 0
M  V30 43 H 1.1484 -16.8342 -15.4009 0
M  V30 44 H 0.8757 -16.175 -16.9957 0
M  V30 45 H 3.7797 -18.073 -18.5824 0
M  V30 46 H 2.5077 -16.9386 -18.9624 0
M  V30 47 H 3.1239 -18.0909 -16.1963 0
M  V30 48 H 1.7418 -18.4859 -17.1866 0
M  V30 END ATOM
M  V30 BEGIN BOND
M  V30 1 1 1 2
M  V30 2 2 2 3
M  V30 3 1 2 4
M  V30 4 1 3 5
M  V30 5 1 3 6
M  V30 6 2 4 7
M  V30 7 2 6 8
M  V30 8 1 7 9
M  V30 9 1 9 10
M  V30 10 2 10 11
M  V30 11 1 10 12
M  V30 12 1 11 13
M  V30 13 1 12 14
M  V30 14 2 12 15
M  V30 15 1 13 16
M  V30 16 2 13 17
M  V30 17 2 14 18
M  V30 18 1 15 19
M  V30 19 2 16 20
M  V30 20 1 17 21
M  V30 21 1 18 22
M  V30 22 1 20 23
M  V30 23 1 22 24
M  V30 24 1 22 25
M  V30 25 1 24 26
M  V30 26 1 25 27
M  V30 27 1 26 28
M  V30 28 1 7 8
M  V30 29 1 15 16
M  V30 30 1 18 19
M  V30 31 2 21 23
M  V30 32 1 27 28
M  V30 33 1 4 29
M  V30 34 1 6 30
M  V30 35 1 8 31
M  V30 36 1 9 32
M  V30 37 1 17 33
M  V30 38 1 19 34
M  V30 39 1 20 35
M  V30 40 1 21 36
M  V30 41 1 22 37
M  V30 42 1 23 38
M  V30 43 1 24 39
M  V30 44 1 24 40
M  V30 45 1 25 41
M  V30 46 1 25 42
M  V30 47 1 26 43
M  V30 48 1 26 44
M  V30 49 1 27 45
M  V30 50 1 27 46
M  V30 51 1 28 47
M  V30 52 1 28 48
M  V30 END BOND
M  V30 END CTAB
M  END
>  <Molecule Name>
P4

>  <r_i_docking_score>
-4.86123899328431

$$$$
P5
Actelion Java MolfileCreator 2.0

  0  0  0  0  0  0              0 V3000
M  V30 BEGIN CTAB
M  V30 COUNTS 48 52 0 0 0
M  V30 BEGIN ATOM
M  V30 1 Cl 2.6131 -17.1597 -20.8004 0
M  V30 2 C 2.4361 -15.7807 -19.7746 0
M  V30 3 C 1.3051 -14.9409 -19.8791 0
M  V30 4 C 3.4423 -15.4923 -18.8301 0
M  V30 5 Cl 0.0636 -15.2534 -21.0394 0
M  V30 6 C 1.1813 -13.828 -19.0268 0
M  V30 7 C 3.3396 -14.3595 -17.9971 0
M  V30 8 C 2.1881 -13.5434 -18.0867 0
M  V30 9 N 4.3809 -14.0738 -17.1002 0
M  V30 10 C 4.9887 -12.8307 -16.8785 0
M  V30 11 N 4.4964 -11.7478 -17.5248 0
M  V30 12 C 6.1074 -12.6947 -16.0162 0
M  V30 13 C 5.0357 -10.523 -17.3777 0
M  V30 14 N 6.7675 -13.632 -15.2356 0
M  V30 15 C 6.6938 -11.4053 -15.8746 0
M  V30 16 C 6.1668 -10.2994 -16.5623 0
M  V30 17 C 4.4526 -9.4284 -18.0353 0
M  V30 18 C 7.7153 -12.908 -14.6346 0
M  V30 19 N 7.7342 -11.6083 -14.9831 0
M  V30 20 C 6.7183 -9.0072 -16.4443 0
M  V30 21 C 4.985 -8.1318 -17.9068 0
M  V30 22 C 8.665 -13.421 -13.5861 0
M  V30 23 C 6.1308 -7.9235 -17.1208 0
M  V30 24 C 9.5234 -14.617 -14.0524 0
M  V30 25 C 7.97 -13.7116 -12.2389 0
M  V30 26 C 8.7639 -15.9565 -14.0226 0
M  V30 27 C 7.201 -15.0445 -12.2432 0
M  V30 28 C 8.1159 -16.2085 -12.6517 0
M  V30 29 H 4.3093 -16.1338 -18.7678 0
M  V30 30 H 0.3161 -13.1856 -19.0978 0
M  V30 31 H 2.0735 -12.6845 -17.4422 0
M  V30 32 H 4.9342 -14.8515 -16.7703 0
M  V30 33 H 3.575 -9.6107 -18.6358 0
M  V30 34 H 8.3752 -10.9255 -14.6093 0
M  V30 35 H 7.5859 -8.8303 -15.8391 0
M  V30 36 H 4.5149 -7.3001 -18.4108 0
M  V30 37 H 9.3654 -12.6067 -13.3945 0
M  V30 38 H 6.55 -6.9325 -17.0272 0
M  V30 39 H 10.3817 -14.7055 -13.3854 0
M  V30 40 H 9.9314 -14.4293 -15.046 0
M  V30 41 H 7.3109 -12.8878 -11.9624 0
M  V30 42 H 8.7284 -13.7637 -11.457 0
M  V30 43 H 7.9974 -15.9701 -14.7971 0
M  V30 44 H 9.4468 -16.7716 -14.2626 0
M  V30 45 H 6.3518 -14.986 -12.9242 0
M  V30 46 H 6.7815 -15.2346 -11.2554 0
M  V30 47 H 7.5461 -17.1376 -12.6765 0
M  V30 48 H 8.8929 -16.3429 -11.8981 0
M  V30 END ATOM
M  V30 BEGIN BOND
M  V30 1 1 1 2
M  V30 2 2 2 3
M  V30 3 1 2 4
M  V30 4 1 3 5
M  V30 5 1 3 6
M  V30 6 2 4 7
M  V30 7 2 6 8
M  V30 8 1 7 9
M  V30 9 1 9 10
M  V30 10 2 10 11
M  V30 11 1 10 12
M  V30 12 1 11 13
M  V30 13 1 12 14
M  V30 14 2 12 15
M  V30 15 1 13 16
M  V30 16 2 13 17
M  V30 17 2 14 18
M  V30 18 1 15 19
M  V30 19 2 16 20
M  V30 20 1 17 21
M  V30 21 1 18 22
M  V30 22 1 20 23
M  V30 23 1 22 24
M  V30 24 1 22 25
M  V30 25 1 24 26
M  V30 26 1 25 27
M  V30 27 1 26 28
M  V30 28 1 7 8
M  V30 29 1 15 16
M  V30 30 1 18 19
M  V30 31 2 21 23
M  V30 32 1 27 28
M  V30 33 1 4 29
M  V30 34 1 6 30
M  V30 35 1 8 31
M  V30 36 1 9 32
M  V30 37 1 17 33
M  V30 38 1 19 34
M  V30 39 1 20 35
M  V30 40 1 21 36
M  V30 41 1 22 37
M  V30 42 1 23 38
M  V30 43 1 24 39
M  V30 44 1 24 40
M  V30 45 1 25 41
M  V30 46 1 25 42
M  V30 47 1 26 43
M  V30 48 1 26 44
M  V30 49 1 27 45
M  V30 50 1 27 46
M  V30 51 1 28 47
M  V30 52 1 28 48
M  V30 END BOND
M  V30 END CTAB
M  END
>  <Molecule Name>
P5

>  <r_i_docking_score>
-4.66791051338758

$$$$
